100

Cu       6.38163750      11.48694750      -5.41500000
Cu       6.38163750       1.27632750      -5.41500000
Cu       6.38163750       3.82898250      -5.41500000
Cu       6.38163750       6.38163750      -5.41500000
Cu       7.65796500       7.65796500       0.00000000
Cu       7.65796500      10.21062000       0.00000000
Cu       7.65796500      12.76327500       0.00000000
Cu       7.65796500       2.55265500       0.00000000
Cu       7.65796500       5.10531000       0.00000000
Cu      10.21062000       7.65796500       0.00000000
Cu      10.21062000      10.21062000       0.00000000
Cu      10.21062000      12.76327500       0.00000000
Cu      10.21062000       2.55265500       0.00000000
Cu      10.21062000       5.10531000       0.00000000
Cu       0.00000000       7.65796500       0.00000000
Cu       0.00000000      10.21062000       0.00000000
Cu       0.00000000      12.76327500       0.00000000
Cu       0.00000000       2.55265500       0.00000000
Cu       0.00000000       5.10531000       0.00000000
Cu       2.55265500       7.65796500       0.00000000
Cu       2.55265500      10.21062000       0.00000000
Cu       2.55265500      12.76327500       0.00000000
Cu       2.55265500       2.55265500       0.00000000
Cu       2.55265500       5.10531000       0.00000000
Cu       5.10531000       7.65796500       0.00000000
Cu       5.10531000      10.21062000       0.00000000
Cu       5.10531000      12.76327500       0.00000000
Cu       5.10531000       2.55265500       0.00000000
Cu       5.10531000       5.10531000       0.00000000
Cu       8.93429250       8.93429250      -1.80500000
Cu       8.93429250      11.48694750      -1.80500000
Cu       8.93429250       1.27632750      -1.80500000
Cu       8.93429250       3.82898250      -1.80500000
Cu       8.93429250       6.38163750      -1.80500000
Cu      11.48694750       8.93429250      -1.80500000
Cu      11.48694750      11.48694750      -1.80500000
Cu      11.48694750       1.27632750      -1.80500000
Cu      11.48694750       3.82898250      -1.80500000
Cu      11.48694750       6.38163750      -1.80500000
Cu       1.27632750       8.93429250      -1.80500000
Cu       1.27632750      11.48694750      -1.80500000
Cu       1.27632750       1.27632750      -1.80500000
Cu       1.27632750       3.82898250      -1.80500000
Cu       1.27632750       6.38163750      -1.80500000
Cu       3.82898250       8.93429250      -1.80500000
Cu       3.82898250      11.48694750      -1.80500000
Cu       3.82898250       1.27632750      -1.80500000
Cu       3.82898250       3.82898250      -1.80500000
Cu       3.82898250       6.38163750      -1.80500000
Cu       6.38163750       8.93429250      -1.80500000
Cu       6.38163750      11.48694750      -1.80500000
Cu       6.38163750       1.27632750      -1.80500000
Cu       6.38163750       3.82898250      -1.80500000
Cu       6.38163750       6.38163750      -1.80500000
Cu       7.65796500       7.65796500      -3.61000000
Cu       7.65796500      10.21062000      -3.61000000
Cu       7.65796500      12.76327500      -3.61000000
Cu       7.65796500       2.55265500      -3.61000000
Cu       7.65796500       5.10531000      -3.61000000
Cu      10.21062000       7.65796500      -3.61000000
Cu      10.21062000      10.21062000      -3.61000000
Cu      10.21062000      12.76327500      -3.61000000
Cu      10.21062000       2.55265500      -3.61000000
Cu      10.21062000       5.10531000      -3.61000000
Cu       0.00000000       7.65796500      -3.61000000
Cu       0.00000000      10.21062000      -3.61000000
Cu       0.00000000      12.76327500      -3.61000000
Cu       0.00000000       2.55265500      -3.61000000
Cu       0.00000000       5.10531000      -3.61000000
Cu       2.55265500       7.65796500      -3.61000000
Cu       2.55265500      10.21062000      -3.61000000
Cu       2.55265500      12.76327500      -3.61000000
Cu       2.55265500       2.55265500      -3.61000000
Cu       2.55265500       5.10531000      -3.61000000
Cu       5.10531000       7.65796500      -3.61000000
Cu       5.10531000      10.21062000      -3.61000000
Cu       5.10531000      12.76327500      -3.61000000
Cu       5.10531000       2.55265500      -3.61000000
Cu       5.10531000       5.10531000      -3.61000000
Cu       8.93429250       8.93429250      -5.41500000
Cu       8.93429250      11.48694750      -5.41500000
Cu       8.93429250       1.27632750      -5.41500000
Cu       8.93429250       3.82898250      -5.41500000
Cu       8.93429250       6.38163750      -5.41500000
Cu      11.48694750       8.93429250      -5.41500000
Cu      11.48694750      11.48694750      -5.41500000
Cu      11.48694750       1.27632750      -5.41500000
Cu      11.48694750       3.82898250      -5.41500000
Cu      11.48694750       6.38163750      -5.41500000
Cu       1.27632750       8.93429250      -5.41500000
Cu       1.27632750      11.48694750      -5.41500000
Cu       1.27632750       1.27632750      -5.41500000
Cu       1.27632750       3.82898250      -5.41500000
Cu       1.27632750       6.38163750      -5.41500000
Cu       3.82898250       8.93429250      -5.41500000
Cu       3.82898250      11.48694750      -5.41500000
Cu       3.82898250       1.27632750      -5.41500000
Cu       3.82898250       3.82898250      -5.41500000
Cu       3.82898250       6.38163750      -5.41500000
Cu       6.38163750       8.93429250      -5.41500000
VEC1      12.76327500       0.00000000       0.00000000 
VEC2       0.00000000      12.76327500       0.00000000 
