35
 $coord  
C -1.67936 1.08308 0.484431
C -2.98062 1.59983 0.435878
C -4.03589 0.812719 -0.0239166
C -3.79243 -0.496379 -0.447219
C -2.49171 -1.00649 -0.39137
C -1.41112 -0.248337 0.0800232
O -0.70841 1.93975 0.947658
C 0.0100175 -0.837288 0.23761
C 1.0129 0.101257 -0.488334
C 2.24812 0.464851 -0.0652417
C 0.498682 0.572617 -1.84644
C 3.09508 1.45847 -0.840808
C 2.96973 -0.0732795 1.16148
C 0.153352 -2.23213 -0.414158
H 0.171199 1.57437 0.728573
C 0.197031 -1.02271 1.76972
H -3.13996 2.62658 0.757446
H -5.04219 1.22597 -0.0570321
H -4.60394 -1.11863 -0.818213
H -2.31885 -2.02688 -0.721874
H 1.30592 0.650891 -2.5817
H -0.247083 -0.128273 -2.23543
H 0.000728034 1.55036 -1.77915
H 2.52525 2.06412 -1.55038
H 3.89518 0.939128 -1.39327
H 3.59412 2.14001 -0.137103
H 2.92766 -1.16605 1.21442
H 4.02762 0.214022 1.12263
H 2.55918 0.318843 2.10053
H 1.18423 -2.58011 -0.278475
H -0.519791 -2.95756 0.060504
H -0.0667495 -2.20394 -1.48757
H 1.07951 -1.62071 2.0098
H 0.263704 -0.0632534 2.29251
H -0.681121 -1.55486 2.15447
