24
 $coord  
C 1.2327 -0.335202 1.25504
C -0.157003 0.15896 1.70538
C -1.21095 -0.2386 0.6753
C -0.795132 0.254804 -0.710134
C 0.619544 -0.25196 -1.05058
O 1.53787 0.195518 -0.0337646
O -0.542301 -0.41366 2.95726
O -2.49766 0.324315 0.962614
O -1.70319 -0.207685 -1.71975
C 1.13706 0.287402 -2.39261
O 0.516091 -0.339308 -3.50959
H 0.184686 -0.255139 3.57764
H -2.75023 0.014238 1.84389
H -0.442051 -0.264335 -3.37334
H -2.59298 0.0469614 -1.4344
O 2.23639 0.0574643 2.15642
H 2.31868 1.02226 2.08687
H 1.25154 -1.43691 1.23934
H -0.117417 1.26134 1.7703
H -1.27478 -1.33966 0.650191
H -0.769446 1.35735 -0.697205
H 0.608307 -1.3544 -1.09033
H 1.00116 1.38398 -2.40762
H 2.20912 0.0722652 -2.46092
