26
 $coord  
C -4.12622 -0.752995 0.229959
C -4.34216 0.300684 -0.666487
C -3.26163 1.10944 -1.03591
C -1.98113 0.877038 -0.528904
C -1.76793 -0.182234 0.370475
C -2.85438 -0.993908 0.749606
N -0.488407 -0.492371 0.857905
N 0.488407 0.492371 0.857905
C 1.76793 0.182234 0.370475
C 2.85438 0.993908 0.749606
C 4.12622 0.752995 0.229959
C 4.34216 -0.300684 -0.666487
C 3.26163 -1.10944 -1.03591
C 1.98113 -0.877038 -0.528904
H -0.469153 -1.11918 1.65844
H 0.469153 1.11918 1.65844
H -4.95483 -1.39035 0.533638
H -5.33569 0.48918 -1.06661
H -3.41234 1.93275 -1.73215
H -1.14154 1.50162 -0.819767
H -2.69409 -1.81388 1.4498
H 2.69409 1.81388 1.4498
H 4.95483 1.39035 0.533638
H 5.33569 -0.48918 -1.06661
H 3.41234 -1.93275 -1.73215
H 1.14154 -1.50162 -0.819767
