94

C      -1.472518264049      -4.285367035821       2.441505296009
C      -1.728607981182      -4.560752639273       1.096339798950
C      -2.146085104488      -5.819205649573       0.705776353898
C      -2.396710917405      -6.836614159498       1.623379915530
C      -2.195910156292      -6.556701439490       2.985194651527
C      -1.726322480658      -5.290271680002       3.391838709787
C      -2.156665419901      -5.813333352965      -0.736686464431
C      -1.746912445784      -4.551087355791      -1.123156023979
N      -1.457100842122      -3.681398531018      -0.012064595644
C      -2.412320181704      -6.825861685647      -1.658402968090
C      -2.226159486420      -6.536504536097      -3.020363414065
C      -1.766941144179      -5.265154214816      -3.423704281385
C      -1.508588720707      -4.264857465958      -2.469577684008
C      -0.892331200340      -2.667016800099      -0.005056389372
C       0.484357781277      -2.375923550410      -0.000000000000
C       0.940321914080      -1.037993021817       0.015900797071
C       0.000000000000       0.000000000000       0.000000000000
C      -1.390262178168      -0.241909653178      -0.024710223068
C      -1.859812370433      -1.606564028830      -0.000000000000
C       0.484021405000       1.368031522435      -0.000625123070
N       0.869709908988       2.459084421453      -0.001162384342
N       2.138698291238      -0.873078785448       0.039563006931
N      -3.140186243492      -2.010159479650       0.082685489775
C      -3.979291586442      -2.073581321492       1.249636493227
C      -5.266033584916      -2.471785332948       0.943535492748
C      -5.343175102101      -2.538282025635      -0.498094021518
C      -4.098644387682      -2.173550574899      -0.976922392757
C      -6.213513114567      -2.746314292880       1.926986563124
C      -5.824831119239      -2.611862722823       3.269653520635
C      -4.512650231748      -2.212136353711       3.595538117087
C      -3.576402882629      -1.946143421420       2.581786979412
C      -3.836103314312      -2.196155768244      -2.348785300963
C      -4.869923502041      -2.565601136257      -3.225970839730
C      -6.138673066002      -2.922505767362      -2.725588286279
C      -6.385336751277      -2.912254913646      -1.343263194809
C       1.411899420632      -3.489008066062      -0.003200280348
N      -2.425201579427       0.644106062786      -0.085588908774
H      -2.869594646749      -1.910542000896      -2.734201425703
H      -4.690377429516      -2.574594541060      -4.292950748377
H      -6.927202154105      -3.205198761137      -3.410468580100
H      -7.352962111178      -3.192534167942      -0.948762668617
H      -4.224101302346      -2.107836001133       4.633137121085
H      -6.537586570971      -2.813347874268       4.058422235488
H      -7.217419707735      -3.054381888264       1.666678951698
H      -2.575831226276      -1.626759590368       2.832574291514
H      -1.142806020664      -3.292349720137      -2.772404554485
H      -1.608642840224      -5.058974864346      -4.474093475845
H      -2.417965560406      -7.299754864551      -3.763053479192
H      -2.728701737186      -7.809233804293      -1.336621562010
H      -2.721636636037      -7.816195460209       1.298541196206
H      -2.384020016366      -7.323688619811       3.724982090554
H      -1.556623624350      -5.091409924356       4.441859449127
H      -1.100211352069      -3.316111343272       2.746856983532
N       2.140045798384      -4.388842898905      -0.005986349645
C      -3.147147682341       1.353492475938       0.930956449797
C      -4.021670711688       2.283997158789       0.400878089406
C      -3.950968100409       2.142393190857      -1.036808719911
C      -3.038196551900       1.135603727377      -1.286435135408
C      -2.628990538589       0.855884220291      -2.592765246743
C      -4.540179352811       2.879775714082      -2.061468258298
C      -4.692974798654       3.208916323477       1.197564919968
C      -2.851935693081       1.355910534257       2.296154557695
C      -3.224536458643       1.568457489973      -3.648291172315
C      -4.179033819381       2.572844740572      -3.383850548722
H      -1.868833634240       0.110812924663      -2.788246982539
H      -2.937875467733       1.354681549262      -4.669541368940
H      -4.623643570021       3.121793901992      -4.203488066417
H      -5.245776005609       3.671406632449      -1.846973585640
C      -4.453037556635       3.181081936782       2.581277667695
C      -3.531728022345       2.263335484119       3.127391663376
H      -5.366777116972       3.936120913467       0.764314396652
H      -4.963069305197       3.881534322683       3.229390287323
H      -3.336208283465       2.266657709077       4.191616591756
H      -2.115364690570       0.676538665674       2.704879442250
C       3.043362005465      -0.789494437673       1.159774327251
C       4.355426035779      -0.568376929084       0.786702721633
C       4.368192733714      -0.539969564753      -0.655637748856
C       3.063063105352      -0.746103235406      -1.060277240038
C       2.733984896514      -0.753715924910      -2.418454136470
C       5.409499838550      -0.367691495165      -1.564691821139
C       5.380511452382      -0.432916347313       1.720097639627
C       2.690388319285      -0.850884246289       2.510565971059
C       5.043574658876      -0.512209295843       3.081613363740
C       3.704593432898      -0.717904897842       3.475130831712
H       1.660856379434      -1.002722388229       2.807950421561
H       3.455472879263      -0.770971081494       4.526910518980
H       5.815686257740      -0.410960871055       3.833089135661
H       6.404007172812      -0.271136368831       1.408456109187
C       3.764960168051      -0.582660379531      -3.358940162622
C       5.096679394437      -0.392885421670      -2.934017821494
H       1.709897413590      -0.893303763521      -2.739745302412
H       3.534434167536      -0.593813525378      -4.416224843851
H       5.881856397785      -0.261948367089      -3.667145500541
H       6.427223487343      -0.218382674409      -1.228861758469