43

C       0.37152132       2.70262254       1.50588346
C       0.43174362       3.47248543       2.67145026
C       1.66147045       3.81958638       3.22657829
C       2.84749746       3.40593341       2.63161242
C       2.79911030       2.63451746       1.46544663
C       1.56514761       2.28472683       0.90886409
H      -0.49967630       3.80963658       3.15260502
H       1.69471255       4.42739028       4.14497110
H       3.81776022       3.68240288       3.07145692
H       7.01330326      -0.20389999      -0.58911612
H       1.52940452       1.67855869      -0.00980220
C      -0.95331429       2.29159826       0.90954728
C      -2.03962395       3.33857954       0.97247784
C      -3.37117975       2.95878142       1.18123021
C      -4.38181953       3.91461915       1.20973320
C      -4.08658406       5.26362767       1.03214118
C      -2.75957711       5.65359294       0.82265827
C      -1.74486670       4.69065565       0.79232865
H      -3.62114961       1.89605002       1.32580795
H      -5.42600425       3.60407652       1.37419069
H      -4.89334649       6.01304340       1.04985822
O      -2.37639944       7.01377975       0.62347283
H      -0.70329119       5.00724040       0.62773009
C      -3.52937439       7.94552758       0.74533769
C      -3.94109874       8.15720186       2.18246542
C      -3.26734935       9.14244440       3.06646792
O      -4.61097973       9.49003900       2.49299730
H      -1.31235089       1.36633609       1.42208430
H      -0.79496229       1.99501786      -0.15565155
H      -4.37717914       7.54535131       0.13846133
H      -3.18728918       8.89788163       0.28867353
H      -4.46276762       7.30963381       2.67432795
H      -2.43271990       9.75963816       2.67706393
H      -3.27060517       8.98823763       4.16452901
O       4.04265024       2.23181508       0.88780124
C       3.83244677       1.42497015      -0.34103240
C       5.16737518       1.04117980      -0.92361560
C       5.90961045      -0.16965005      -0.48901886
O       5.17487095      -0.20381501      -1.79873028
H       3.23826658       2.03252923      -1.06774889
H       3.23497956       0.51895359      -0.07949386
H       5.76069289       1.86516951      -1.37217407
H       5.48344452      -0.83442623       0.28915073
