72
 $coord  
C -1.32908 -0.568173 0.222408
C -0.719165 -0.0796303 -0.972119
C 0.719165 0.0796303 -0.972119
C 1.32908 0.568173 0.222408
C 0.620353 0.337958 1.42889
C -0.620353 -0.337958 1.42889
C -2.55146 -1.57378 0.207965
C -1.53739 0.629314 -2.13436
C 1.53739 -0.629314 -2.13436
C 2.55146 1.57378 0.207965
C 1.1998 0.673188 2.77826
C -1.1998 -0.673188 2.77826
C -2.1289 -2.83436 1.02452
C -2.84267 -2.14568 -1.20017
C -3.88497 -1.05205 0.799241
O -0.353632 -1.49148 3.47873
C -0.774363 1.95745 -2.43069
C -1.79235 -0.0529211 -3.50213
C -2.90512 1.1204 -1.58874
C 1.79235 0.0529211 -3.50213
C 0.774363 -1.95745 -2.43069
C 2.90512 -1.1204 -1.58874
C 2.84267 2.14568 -1.20017
C 3.88497 1.05205 0.799241
C 2.1289 2.83436 1.02452
O -2.23756 -0.255026 3.23998
C -0.765803 -1.80042 4.83007
O 0.353632 1.49148 3.47873
C 0.765803 1.80042 4.83007
O 2.23756 0.255026 3.23998
H -1.16661 -3.22501 0.671331
H -2.0564 -2.65518 2.09745
H -2.89389 -3.60919 0.885718
H -1.92178 -2.45698 -1.70196
H -3.48828 -3.02562 -1.0882
H -3.37911 -1.44993 -1.84127
H -3.80749 -0.883055 1.87278
H -4.20761 -0.116642 0.336911
H -4.66246 -1.80763 0.616148
H -0.668402 2.54855 -1.51338
H -1.35472 2.54166 -3.1578
H 0.217832 1.78659 -2.84509
H -0.877706 -0.176564 -4.08292
H -2.45907 0.597674 -4.08374
H -2.26738 -1.03083 -3.41968
H -2.79312 1.5557 -0.58984
H -3.66121 0.339392 -1.54371
H -3.28404 1.89643 -2.26687
H 2.26738 1.03083 -3.41968
H 0.877706 0.176564 -4.08292
H 2.45907 -0.597674 -4.08374
H 0.668402 -2.54855 -1.51338
H 1.35472 -2.54166 -3.1578
H -0.217832 -1.78659 -2.84509
H 3.66121 -0.339392 -1.54371
H 3.28404 -1.89643 -2.26687
H 2.79312 -1.5557 -0.58984
H 1.92178 2.45698 -1.70196
H 3.37911 1.44993 -1.84127
H 3.48828 3.02562 -1.0882
H 3.80749 0.883055 1.87278
H 4.66246 1.80763 0.616148
H 4.20761 0.116642 0.336911
H 1.16661 3.22501 0.671331
H 2.89389 3.60919 0.885718
H 2.0564 2.65518 2.09745
H 0.0549787 -2.38333 5.2549
H -0.932881 -0.87897 5.39958
H -1.69515 -2.38349 4.8178
H -0.0549787 2.38333 5.2549
H 1.69515 2.38349 4.8178
H 0.932881 0.87897 5.39958
