30
 $coord  
C -4.1824 1.28468 0
C -5.32577 0.483067 0
C -5.2076 -0.920743 0
C -3.9624 -1.55928 0
C -2.82499 -0.748994 0
C -2.92922 0.664959 0
C -1.5663 1.21364 0
C -0.68374 0.00288452 0
N -1.48517 -1.1188 0
O -1.17242 2.38506 0
C 0.68374 -0.00288452 0
N 1.48517 1.1188 0
C 2.82499 0.748994 0
C 2.92922 -0.664959 0
C 1.5663 -1.21364 0
C 3.9624 1.55928 0
C 5.2076 0.920743 0
C 5.32577 -0.483067 0
C 4.1824 -1.28468 0
O 1.17242 -2.38506 0
H -4.24809 2.37066 0
H -6.31307 0.938547 0
H -6.10977 -1.52955 0
H -3.88646 -2.64439 0
H -1.10298 -2.05678 0
H 1.10298 2.05678 0
H 3.88646 2.64439 0
H 6.10977 1.52955 0
H 6.31307 -0.938547 0
H 4.24809 -2.37066 0
