51
 $coord  
C -3.05197 0.810829 -0.43971
C -3.27108 -0.486972 0.0141966
C -2.18361 -1.36331 0.187109
C -0.867862 -0.960386 -0.109837
C -0.659671 0.39392 -0.48869
C -1.74845 1.25697 -0.687451
C -1.53691 2.67202 -1.19686
C 0.785341 0.858654 -0.722152
C -0.133323 2.83336 -1.78557
N 0.85493 2.33529 -0.812922
C 1.7107 0.183108 0.299761
C 0.300002 -1.86917 -0.0613793
C 1.58156 -1.31117 0.128686
C 1.31618 -4.07623 -0.236529
C 2.59435 -3.51447 -0.0139088
C 2.70891 -2.13674 0.158901
C 0.189262 -3.26153 -0.26697
O -4.54679 -0.898175 0.293223
O -2.52228 -2.63732 0.653366
C -2.11356 -2.86529 2.02228
O 1.31868 -5.4451 -0.419533
C 0.059215 -6.08123 -0.652629
O 3.71956 -4.29253 0.0203642
C 1.33722 3.14804 0.187981
O 2.04547 2.81879 1.12508
O 0.946808 4.45374 -0.0214735
C 1.49693 5.42058 0.911438
C 0.939977 6.78199 0.529004
H -3.9037 1.47011 -0.593762
H -2.29784 2.90814 -1.95392
H -1.65881 3.39606 -0.378341
H 1.10009 0.496864 -1.71677
H -0.0295002 2.21787 -2.68992
H 0.0829776 3.86977 -2.04501
H 1.41582 0.479278 1.31302
H 2.74466 0.505988 0.154392
H 3.69827 -1.71012 0.308821
H -0.787081 -3.69231 -0.448344
H -4.48483 -1.84104 0.527431
H -2.56611 -2.11371 2.68564
H -1.02009 -2.82659 2.10727
H -2.47297 -3.86536 2.28747
H 0.276463 -7.14738 -0.76122
H -0.623613 -5.92006 0.195366
H -0.40993 -5.69694 -1.57072
H 3.45046 -5.21203 -0.135298
H 1.21194 5.1356 1.93178
H 2.59232 5.39535 0.847831
H -0.154991 6.78889 0.595862
H 1.33499 7.54191 1.21598
H 1.23188 7.05206 -0.493346
