39
 $coord  
N -0.40955 1.88595 2.53146
C -0.507793 1.27171 1.55112
C -0.636602 0.522888 0.288777
C -0.0916431 -0.91197 0.429761
C -0.422874 -1.85144 -0.557257
C 0.14295 -3.12757 -0.539111
C 1.0449 -3.48182 0.470994
C 1.3724 -2.55098 1.45957
C 0.810028 -1.27034 1.43763
H -1.13094 -1.5822 -1.33803
H -0.123302 -3.84639 -1.31165
H 1.4868 -4.47596 0.486207
H 2.07388 -2.81479 2.24836
H 1.08617 -0.546934 2.20097
C -2.14425 0.501702 -0.0637842
C -2.6656 1.08823 -1.2218
C -4.03752 1.01485 -1.49797
C -4.89991 0.359892 -0.617668
C -4.38448 -0.224145 0.546455
C -3.01907 -0.154316 0.817638
H -2.01725 1.60619 -1.922
H -4.42635 1.47441 -2.40454
H -5.96506 0.305099 -0.83303
H -5.04719 -0.735457 1.24173
H -2.61792 -0.614291 1.71833
C 0.223865 1.27265 -0.803014
C 1.7039 1.29143 -0.510303
C 2.52035 0.243543 -0.960023
C 3.87239 0.25539 -0.638032
C 4.45329 1.271 0.117086
C 3.63203 2.31254 0.560705
C 2.26902 2.32494 0.250503
H 2.1088 -0.583089 -1.53239
F 4.65571 -0.769501 -1.0744
H 5.51558 1.23881 0.343878
H 4.06067 3.11794 1.15302
H 1.63617 3.1323 0.610441
H 0.0343239 0.752804 -1.74826
H -0.155923 2.2969 -0.891383
