41
 $coord  
C -0.383589 0.186342 -0.1921
C -1.14139 -0.331261 1.06306
C -0.283508 -0.210644 2.30403
C 1.00439 0.146911 2.32206
C 1.82347 0.367566 1.08248
C 1.12492 -0.190093 -0.167028
C 1.87535 0.274857 -1.44235
C 3.39569 0.447046 -1.20449
C 3.89906 -0.549064 -0.149316
C 3.23191 -0.278837 1.22322
C -2.50657 0.396704 1.29779
C -3.3342 -0.311224 2.38764
C -3.3712 0.511374 0.0301004
C -0.960527 -0.404892 -1.4709
O -1.20641 -1.58109 -1.64406
O -1.10937 0.541673 -2.44139
C -1.58762 0.0526412 -3.71827
H -0.457361 1.28103 -0.23582
H -1.37171 -1.39525 0.891243
H -0.778418 -0.40579 3.25342
H 1.52082 0.244868 3.27899
H 1.44557 1.22373 -1.78966
H 1.7048 -0.458998 -2.24164
H 3.93924 0.322269 -2.14987
H 3.60109 1.46879 -0.853791
H 4.99165 -0.500314 -0.0551043
H 3.6544 -1.56752 -0.48308
H 3.13579 -1.22239 1.77803
H 3.86183 0.386713 1.82962
H -2.2716 1.41613 1.6427
H -2.83039 -0.336713 3.36004
H -3.54542 -1.34643 2.08314
H -4.2944 0.203257 2.52441
H -3.55975 -0.481468 -0.400152
H -2.90365 1.13927 -0.735405
H -4.34027 0.960901 0.284147
H -1.62955 0.931026 -4.36715
H -2.5812 -0.396946 -3.60402
H -0.898872 -0.699274 -4.12129
H 1.17137 -1.28692 -0.103618
H 1.96566 1.45202 0.934366
