28
 $coord  
C -0.32218 2.39855 0.00279214
C -0.127766 0.987564 0.586007
C -1.27551 0.0545199 0.209808
C -1.25079 -0.702635 -0.96882
C -2.32845 -1.52647 -1.30377
C -3.44325 -1.60595 -0.46218
C -3.47428 -0.854605 0.716766
C -2.39571 -0.0296184 1.04833
H -0.382298 -0.652457 -1.62003
H -2.29573 -2.11003 -2.22199
H -4.28005 -2.25158 -0.721789
H -4.33607 -0.911153 1.37917
H -2.42273 0.561278 1.96224
C 1.25325 0.416129 0.292588
C 1.88538 -0.339585 1.29255
C 3.13505 -0.922309 1.07216
C 3.77753 -0.755115 -0.159633
C 3.15877 -0.00364483 -1.16221
C 1.90417 0.57579 -0.940847
H 1.3855 -0.473756 2.25104
H 3.6077 -1.50423 1.86116
H 4.75246 -1.20571 -0.3347
H 3.65044 0.133036 -2.12358
H 1.43449 1.14993 -1.73398
H -0.181584 1.15017 1.67096
H 0.551064 3.04384 0.17191
F -0.564231 2.37472 -1.35719
F -1.41519 3.00332 0.59324
