44
 $coord  
C -2.2061 -0.150061 0.851377
C -1.91742 -0.102595 -0.743135
C -3.2253 0.568124 -1.31182
C -3.74808 1.52487 -0.196035
C -3.5266 0.697991 1.11687
C -0.690539 0.815095 -1.0285
C 0.646906 0.193358 -0.618891
C 1.59838 1.08582 0.103485
C 1.87463 2.36825 -0.400493
C 2.75698 3.21695 0.270998
C 3.35137 2.80422 1.46861
C 3.06366 1.53754 1.98826
C 2.19637 0.680499 1.30777
O -1.77524 -1.35118 -1.33747
F -3.02254 1.23596 -2.48244
F -4.18313 -0.373786 -1.53107
F -2.97278 2.65134 -0.152902
F -5.03261 1.90088 -0.371238
F -3.40711 1.49978 2.19956
F -4.6086 -0.106668 1.30304
C -2.28962 -1.59646 1.44589
F -3.2131 -2.35726 0.846493
F -1.17403 0.46525 1.54925
N 0.841295 -1.02692 -0.958339
C 2.09578 -1.75261 -0.748723
C 1.87674 -2.86273 0.289345
C 2.52127 -2.34331 -2.10159
F -1.08547 -2.20458 1.33262
F -2.58368 -1.52752 2.76956
H 2.89026 -1.0815 -0.391759
H 2.67925 -1.54948 -2.84191
H 3.45733 -2.90413 -1.98313
H 1.74676 -3.02358 -2.47834
H 1.58878 -2.44931 1.26229
H 1.08075 -3.54078 -0.041981
H 2.80285 -3.43874 0.409618
H 1.40586 2.69647 -1.32629
H 2.9738 4.20273 -0.135268
H 4.02958 3.47005 1.99829
H 3.51096 1.21818 2.92735
H 1.95728 -0.296055 1.71899
H -0.81276 1.78569 -0.549659
H -0.681029 0.966737 -2.11366
H -0.791125 -1.54652 -1.31503
