52
 $coord  
C -0.184878 -0.331534 0.0582453
C 0.511802 0.866367 -0.525953
C 0.403302 -1.67131 -0.24155
C -0.0114045 2.23688 0.0261873
C 0.477076 0.818984 -2.07694
C -0.442413 2.08389 1.49603
H 0.851682 2.91484 -0.00123259
C -1.12175 2.90322 -0.801805
C -1.61411 1.1022 1.61923
H 0.397987 1.716 2.10011
H -0.731656 3.06062 1.89999
C -1.26537 -0.241078 0.954045
H -1.86032 0.908029 2.66911
H -2.508 1.55545 1.17298
H -1.30334 -1.11486 1.6221
SI -2.98329 -0.968604 -0.0504101
C 1.86899 -1.7227 0.282426
C 2.70365 -0.604943 -0.355835
C 2.02876 0.745526 -0.0722571
H -0.185365 -2.46893 0.217963
H 0.427229 -1.83625 -1.32681
H 1.86103 -1.61251 1.37455
H 2.28453 -2.7097 0.0497946
C 4.15007 -0.605716 0.123111
H 2.71823 -0.769176 -1.44099
H 2.08003 0.95503 1.00215
H 2.55959 1.55213 -0.591059
C -4.2094 -0.927989 1.38492
C -3.47466 0.176065 -1.46385
C -2.65009 -2.72434 -0.650516
H -5.17831 -1.30267 1.02373
H -3.8871 -1.57232 2.21295
H -4.36327 0.0868118 1.76911
H -4.33207 -0.290782 -1.97203
H -3.80015 1.16289 -1.11646
H -2.68083 0.305332 -2.20823
H -3.59999 -3.12413 -1.03599
H -1.91979 -2.76771 -1.46653
H -2.31813 -3.39057 0.155469
H 1.01658 1.69325 -2.45759
H 0.962584 -0.07932 -2.46547
H -0.548433 0.858737 -2.45613
H -1.42561 3.83702 -0.313626
H -0.781514 3.1493 -1.81239
H -2.00553 2.26624 -0.891145
C 5.15036 -0.673013 -0.762833
C 4.39863 -0.524417 1.61032
H 6.19078 -0.666117 -0.442525
H 4.95845 -0.739065 -1.83332
H 3.99265 -1.40355 2.13155
H 5.47139 -0.472479 1.82272
H 3.92139 0.360953 2.05465
