81
 $coord  
C -4.64328 2.47588 0.489083
C -5.81232 1.50691 0.389638
C -5.44346 0.313873 -0.568011
C -3.88993 0.101341 -0.648661
C -3.09547 0.360189 0.667532
C -3.36026 1.85219 1.08497
C -3.48952 -1.23723 -1.27467
C -2.0152 -1.19776 -1.67981
C -1.12418 -0.57963 -0.629687
C -1.58841 0.128437 0.422538
C -6.21478 -0.960296 -0.174003
C -5.91828 0.725944 -1.98033
C -0.65961 0.66201 1.51527
C 0.86501 0.438025 1.32816
C 1.12795 -0.820001 0.506112
C 0.375258 -0.687527 -0.859604
C 2.58622 -1.04167 0.0454554
C 2.43506 -1.98995 -1.18965
C 0.937964 -1.90556 -1.63386
C 3.61043 -1.43918 1.14513
C 4.96691 -0.744676 0.891604
C 4.95078 0.762481 1.23168
C 6.2004 1.47593 0.78283
C 6.40636 2.02802 -0.424118
C 3.82668 -2.95129 1.32353
C 7.71722 2.68897 -0.775774
C 5.38013 2.03823 -1.53196
O -6.17593 1.138 1.73739
C 0.763652 0.582813 -1.67432
C 0.628986 -2.04509 1.30964
H 3.21951 -1.04825 2.09792
H -3.52572 0.877237 -1.34134
C -3.53442 -0.589085 1.81186
H -4.9402 3.35007 1.08169
H -4.43656 2.83138 -0.528964
H -6.6759 2.03004 -0.0554938
H -3.3935 1.92051 2.17839
H -2.5247 2.47965 0.75231
H -4.11057 -1.45695 -2.15235
H -3.65477 -2.05026 -0.55701
H -1.65985 -2.21373 -1.90109
H -1.90477 -0.633416 -2.62223
H -5.89345 -1.35863 0.791866
H -7.29377 -0.746367 -0.125217
H -6.07508 -1.74064 -0.930382
H -5.48743 1.69464 -2.26704
H -5.61354 -0.0168933 -2.72763
H -7.01298 0.813226 -2.00902
H -0.962629 0.185307 2.45833
H -0.837899 1.73289 1.67222
H 1.32028 1.30091 0.827425
H 1.34189 0.361117 2.3154
H 2.91927 -0.0712705 -0.338491
H 3.10979 -1.68267 -1.99739
H 2.69138 -3.02295 -0.937291
H 0.406608 -2.82095 -1.35047
H 0.830514 -1.78926 -2.71892
H 5.24453 -0.874039 -0.164952
H 5.75532 -1.23135 1.4842
H 4.06421 1.2262 0.781531
H 4.83212 0.868773 2.31978
H 7.02527 1.50461 1.49868
H 4.43892 -3.13507 2.21652
H 4.36057 -3.37282 0.461156
H 2.88197 -3.49337 1.4361
H 8.42347 2.65731 0.0629501
H 8.18386 2.19623 -1.64352
H 7.5605 3.74179 -1.0597
H 4.45299 1.52318 -1.2612
H 5.78934 1.55251 -2.43144
H 5.13204 3.07176 -1.82041
H -6.95707 0.572828 1.67892
H 0.540411 1.50085 -1.12214
H 0.167874 0.593948 -2.59633
H 1.82093 0.587225 -1.96674
H -0.441927 -1.97071 1.51969
H 1.16903 -2.09486 2.26299
H 0.806266 -2.98356 0.774915
H -4.56163 -0.381002 2.11546
H -2.89872 -0.437052 2.69183
H -3.44018 -1.63838 1.50852
