48
 $coord  
C 1.40154 -0.692892 0.141904
C 1.00076 -2.0719 0.274583
C 1.64656 -3.30345 0.0521462
C 0.937984 -4.48366 0.263955
C -0.410656 -4.46344 0.686143
C -1.08457 -3.26054 0.891569
C -0.361901 -2.08427 0.677225
H 2.68035 -3.32761 -0.283145
H 1.4278 -5.44093 0.0973123
H -0.935269 -5.40332 0.845131
H -2.12587 -3.22497 1.20037
N -0.774648 -0.767292 0.760065
C 0.291229 0.0898432 0.437901
C 0.17564 1.548 0.556509
C 2.72738 -0.215785 -0.273349
C 3.89369 -0.83233 0.220383
C 5.15928 -0.387567 -0.170333
C 5.28629 0.683585 -1.06118
C 4.13438 1.30324 -1.56129
C 2.87009 0.855793 -1.1766
H 3.79965 -1.65082 0.930097
H 6.04819 -0.874618 0.22717
H 6.27198 1.03049 -1.36527
H 4.22188 2.13251 -2.26121
H 1.97847 1.33258 -1.57556
C -0.896419 2.26086 -0.0139737
C -0.971393 3.6502 0.115557
C 0.0230993 4.35025 0.806272
C 1.09663 3.65041 1.37121
C 1.1709 2.26289 1.2522
H -1.6579 1.73123 -0.578589
H -1.80488 4.18581 -0.335017
H -0.0358895 5.43264 0.902782
H 1.875 4.18684 1.91053
H 2.00203 1.71717 1.69065
N -2.0327 -0.404188 1.20671
C -3.05246 -0.198213 0.250708
C -4.20521 0.504414 0.641107
C -5.25126 0.685471 -0.263218
C -5.16572 0.17129 -1.56333
C -4.01617 -0.527219 -1.94512
C -2.95966 -0.71657 -1.04969
H -4.27228 0.909833 1.65
H -6.13668 1.23566 0.0497118
H -5.98295 0.314366 -2.26638
H -3.93369 -0.931953 -2.95207
H -2.06875 -1.25941 -1.35178
H -1.98386 0.297559 1.93722
