32
 $coord  
C 0 -1.26095 -1.28831
C 0 0 -2.17918
C 0 1.26095 -1.28831
C -1.25822 1.25573 -0.395432
C -1.2792 0 0.507872
C -1.25822 -1.25573 -0.395432
C 1.25822 -1.25573 -0.395432
C 1.25822 1.25573 -0.395432
C 1.2792 0 0.507872
C 0 0 1.37586
C -2.52521 0 1.39597
H 0 -2.16055 -1.91938
H 0.888366 0 -2.82759
H -0.888366 0 -2.82759
H 0 2.16055 -1.91938
H -1.27662 2.15671 0.236344
H -2.16441 1.26841 -1.01961
H -1.27662 -2.15671 0.236344
H -2.16441 -1.26841 -1.01961
H 1.27662 -2.15671 0.236344
H 2.16441 -1.26841 -1.01961
H 1.27662 2.15671 0.236344
H 2.16441 1.26841 -1.01961
C 2.52521 0 1.39597
H 0 0.887782 2.02706
H 0 -0.887782 2.02706
H -3.43828 0 0.783683
H -2.54223 -0.890844 2.03988
H -2.54223 0.890844 2.03988
H 3.43828 0 0.783683
H 2.54223 0.890844 2.03988
H 2.54223 -0.890844 2.03988
