40
 $coord  
C 2.6558 -0.417435 0.707361
C 2.0717 0.418147 -0.260304
C 2.90923 1.0827 -1.18066
C 4.28573 0.91344 -1.13206
C 4.86207 0.0746702 -0.160153
C 4.03562 -0.592915 0.764383
C 0.620492 0.573216 -0.290045
N -0.235694 0.0135286 0.479412
C -1.56481 0.47841 0.0711219
C -1.27755 1.42215 -1.11741
O 0.113429 1.4337 -1.27214
C -2.14159 1.32481 1.2711
C -3.55295 1.80032 1.1256
F -4.47059 0.865826 1.51928
C -2.49003 -0.685545 -0.296716
C -2.28979 -1.94036 0.297189
C -3.16186 -2.99708 0.0235269
C -4.2416 -2.81329 -0.84576
C -4.44399 -1.56313 -1.43715
C -3.57574 -0.502394 -1.16476
O -1.9922 2.08984 -1.80898
O 6.22017 -0.0259084 -0.195197
C 6.8592 -0.869491 0.772811
C -3.9705 2.98695 0.693346
H -5.02912 3.22341 0.636969
H -3.24345 3.72341 0.368181
H -1.44716 -2.08337 0.967174
H -2.99461 -3.96613 0.490301
H -4.91948 -3.63743 -1.05998
H -5.28196 -1.40799 -2.11401
H -3.74829 0.467534 -1.62004
H -2.06563 0.677061 2.15189
H -1.48325 2.18779 1.42377
H 2.47292 1.73078 -1.93501
H 4.93766 1.42077 -1.83842
H 4.45891 -1.24451 1.52215
H 2.0111 -0.929715 1.41658
H 7.92927 -0.801973 0.561053
H 6.52194 -1.91152 0.670182
H 6.65662 -0.51827 1.79541
