42
 $coord  
C 0.836524 0.131713 1.26751
C 1.55711 -0.392344 0
C 0.836524 0.131713 -1.26751
C -0.659167 -0.144523 -1.26332
C -1.33162 0.377349 0
C -0.659167 -0.144523 1.26332
C 1.57542 -1.9242 0
O 2.95105 -0.0225482 0
C 1.61963 0.0982583 -2.55374
C 1.28407 1.42607 -1.90904
C -1.16179 -1.43986 -1.86137
C -1.40832 -0.130802 -2.57398
C -2.81457 0.654994 0
C -1.83139 1.80444 0
C -1.16179 -1.43986 1.86137
C -1.40832 -0.130802 2.57398
C 1.28407 1.42607 1.90904
C 1.61963 0.0982583 2.55374
H 0.556968 -2.31665 0
H 2.09653 -2.28293 -0.893911
H 2.09653 -2.28293 0.893911
H 2.99754 0.943048 0
H 0.503591 2.02578 2.36866
H 2.10232 2.00869 1.48863
H 2.64956 -0.242894 2.466
H 1.12851 -0.183101 3.48396
H -0.431079 -2.11111 2.29247
H -2.01481 -1.91294 1.37978
H -2.42005 0.27606 2.59684
H -0.850806 0.079644 3.4835
H -3.38334 0.465161 0.90433
H -3.38334 0.465161 -0.90433
H -1.72162 2.37474 -0.925222
H -1.72162 2.37474 0.925222
H -2.01481 -1.91294 -1.37978
H -0.431079 -2.11111 -2.29247
H -0.850806 0.079644 -3.4835
H -2.42005 0.27606 -2.59684
H 1.12851 -0.183101 -3.48396
H 2.64956 -0.242894 -2.466
H 2.10232 2.00869 -1.48863
H 0.503591 2.02578 -2.36866
