44
 $coord  
C 4.23498 -0.881485 2.26035
C 4.20666 -0.214902 3.49306
C 3.13773 0.637663 3.79032
C 2.11526 0.826499 2.85979
C 2.14362 0.187865 1.59976
C 3.21968 -0.686576 1.3263
C 1.02866 0.412562 0.682473
C 0.981173 0.305902 -0.680329
C -0.282733 0.407519 -1.4056
C -1.52097 0.0117122 -0.990065
C -1.82703 -0.754218 0.191885
C -3.05738 -0.992413 0.724025
C -6.7798 -0.622855 0.287049
C -5.52571 -1.12988 0.625082
C -4.3439 -0.401669 0.358447
C -4.47736 0.881218 -0.219039
C -5.73356 1.38957 -0.552036
C -6.89014 0.638847 -0.310322
C 4.42966 0.873275 -2.17668
C 3.3052 1.00159 -1.36119
C 2.19371 0.156912 -1.53305
C 2.22986 -0.803759 -2.55857
C 3.35959 -0.938922 -3.37138
C 4.46393 -0.102116 -3.18162
H 5.05146 -1.56371 2.03028
H 5.00315 -0.369754 4.2183
H 3.09771 1.14992 4.74993
H 1.27922 1.48324 3.09741
H 3.24848 -1.21813 0.380538
H 0.103957 0.71908 1.17086
H -0.207957 0.820908 -2.41222
H -2.35461 0.225139 -1.65876
H -0.97966 -1.24864 0.668394
H -3.10859 -1.73437 1.5226
H -7.67369 -1.2088 0.493329
H -5.44433 -2.11094 1.09143
H -3.59278 1.49311 -0.369448
H -5.81213 2.38351 -0.989155
H -7.86816 1.03956 -0.569355
H 5.2803 1.53682 -2.03188
H 3.2786 1.75399 -0.576939
H 1.36935 -1.45414 -2.7046
H 3.37617 -1.69619 -4.15316
H 5.34236 -0.202954 -3.81622
