44
 $coord  
N 2.01719 1.27404 0.0201554
C 1.54749 0.0699556 0.397743
C 0.254681 -0.0862709 0.91076
C -0.679749 0.979702 0.984189
C -2.13505 0.620023 1.47254
O -0.480895 2.1689 0.674613
C -3.11323 0.399029 0.251529
C -4.53696 -0.210264 0.605244
C -5.57185 0.0216443 -0.537601
C -6.96806 -0.624701 -0.304897
C 2.42591 -1.12548 0.30546
C 3.7337 -1.09982 0.821653
C 4.53531 -2.24117 0.771194
C 4.04376 -3.41943 0.197226
C 2.74374 -3.45272 -0.318381
C 1.93612 -2.31453 -0.260096
H 4.10779 -0.187597 1.27999
H 5.54099 -2.21377 1.18574
H 4.67007 -4.30821 0.155991
H 2.35717 -4.36582 -0.766178
H 0.925115 -2.33423 -0.660379
C 3.16672 1.56984 -0.847929
C 2.65565 2.17033 -2.16682
C 4.13459 2.5201 -0.131015
H 3.67562 0.625849 -1.06025
H 4.98806 2.74973 -0.781298
H 3.62837 3.46204 0.118858
H 4.50841 2.07245 0.797499
H 3.50124 2.39769 -2.82823
H 1.98361 1.47034 -2.67714
H 2.10731 3.10234 -1.97462
H 1.33575 2.03167 0.147137
H -0.030929 -1.07033 1.25836
F -2.1515 -0.531564 2.22538
F -2.61317 1.63085 2.24713
F -3.31492 1.60182 -0.362809
F -2.49987 -0.439377 -0.632105
F -5.01026 0.411219 1.72496
F -4.39566 -1.53541 0.870884
H -5.72753 1.10173 -0.635957
F -5.07136 -0.479157 -1.72374
F -7.77599 -0.280535 -1.33916
F -6.91639 -1.96806 -0.248495
F -7.53099 -0.162828 0.832873
