39
 $coord  
C 1.25301 0.596369 0.669665
C 2.13898 -0.713232 0.885711
C 2.69439 -1.03677 -0.531511
C 2.04755 0.0572013 -1.40906
C 0.498133 -0.147168 -1.54582
C 0.0457396 0.107907 -0.0972391
C 2.09337 1.26 -0.470472
C 1.09394 1.5203 1.8792
C -0.0198807 0.934873 -2.55637
C 0.112306 -1.55159 -2.05372
C -2.98562 -0.152878 2.17527
C -1.62685 -0.30162 1.78475
C -1.25777 -0.104198 0.382361
C -2.35649 -0.0538639 -0.554175
C -3.65994 0.0244599 -0.142868
C -3.9803 0.0114408 1.24265
H 2.92868 -0.448546 1.59837
H 1.58298 -1.56608 1.2969
H 2.45532 -2.05202 -0.857629
H 3.78341 -0.927501 -0.553638
H 2.51742 0.176566 -2.38853
H 3.09616 1.50099 -0.100998
H 1.63052 2.17004 -0.861852
H 0.874644 1.01576 2.82298
H 2.03742 2.06047 2.01876
H 0.302897 2.25835 1.69999
H -0.128051 1.92316 -2.10034
H 0.70152 1.01084 -3.37753
H -0.980889 0.652067 -2.99528
H 0.382233 -2.33232 -1.33497
H -0.959662 -1.63186 -2.25505
H 0.649892 -1.74491 -2.99015
H -3.23858 -0.229348 3.23063
N -0.754189 -0.734293 2.70904
H -2.14354 0.024544 -1.60745
CL -4.95459 0.178464 -1.30818
H -5.0165 0.105046 1.55722
H 0.203608 -0.948511 2.48348
H -1.06125 -0.912138 3.65584
