52
 $coord  
C -2.80776 -0.9577 -0.269565
C -2.50776 -0.378577 -1.66507
C -0.997889 -0.11353 -1.61892
C -0.718495 0.341495 -0.144387
C -2.01025 0.00286747 0.646419
C 0.572705 -0.00457913 0.415828
C 1.74988 0.0926783 -0.436194
C 0.742723 -0.194316 1.87361
C 2.06055 1.65749 -0.366528
SI 3.35624 -0.995216 -0.0829624
H 1.47267 -0.0904717 -1.4811
C 0.826942 2.39433 -0.905429
H 2.29076 1.95539 0.662136
H 2.94964 1.84973 -0.977123
C -0.45253 2.03079 -0.142822
H 0.978735 3.47919 -0.817212
H 0.716198 2.17274 -1.97213
C -0.514463 2.67999 1.23899
H -1.34071 2.31898 -0.718343
H -1.34416 2.29769 1.84206
H 0.415807 2.54815 1.80175
H -0.672899 3.75722 1.1071
C 4.30812 -0.894956 -1.71811
C 4.36786 -0.255003 1.34143
C 2.78295 -2.76332 0.291953
H 5.24204 -1.46918 -1.64573
H 3.72526 -1.31164 -2.55068
H 4.57767 0.139085 -1.97263
H 5.34875 -0.749323 1.37966
H 4.5521 0.818356 1.20016
H 3.89962 -0.398214 2.32394
H 3.64906 -3.43609 0.35756
H 2.24613 -2.83341 1.24749
H 2.1268 -3.14862 -0.500882
H 1.75978 0.0315055 2.20483
H 0.000236864 0.347211 2.46424
H 0.565955 -1.26973 2.06023
C -4.26795 -1.07992 0.108486
C -5.148 0.127666 -0.108141
C -4.74319 -2.22421 0.615918
H -6.14724 -0.0368023 0.308064
H -4.72899 1.03022 0.361113
H -5.25753 0.347473 -1.17974
H -5.7881 -2.32638 0.903517
H -4.10166 -3.09493 0.748791
H -2.34565 -1.95401 -0.206181
H -2.78757 -1.05557 -2.47879
H -3.05604 0.562366 -1.80122
H -0.455468 -1.04765 -1.81243
H -0.666241 0.618957 -2.35915
H -1.82539 -0.432471 1.63148
H -2.59923 0.91422 0.794724
