81
 $coord  
C 11.7701 1.41797 -0.377697
C 13.2561 1.1345 -0.502518
C 10.8419 0.281896 -0.199422
C 9.49291 0.338488 0.478201
C 8.47297 -0.581196 -0.231875
C 7.10558 -0.563556 0.41592
C 6.05179 -0.037557 -0.230586
C 4.6286 0.0557158 0.244481
C 3.70912 -0.960742 -0.488042
C 2.25818 -0.859321 -0.0710603
C 1.32592 -0.424854 -0.935751
C -0.150528 -0.265208 -0.704607
C -0.98249 -1.29431 -1.52075
C -2.45984 -1.08253 -1.34477
C -3.33812 -1.85493 -0.682527
C -4.78804 -1.43698 -0.566172
C -5.21572 -1.11107 0.892217
C -6.65799 -0.696415 0.968222
C -7.16021 0.529388 1.19523
C -8.65602 0.75851 1.17365
C -9.1223 1.63335 -0.0234303
C -10.6093 1.85502 -0.0103778
C -11.5359 1.27479 -0.790935
C -13.0032 1.59521 -0.627998
C 11.4378 2.81636 0.105744
C 7.04796 -1.15798 1.80339
C 1.98019 -1.25924 1.35909
C -11.2385 0.272283 -1.87946
H 11.9143 3.55547 -0.552625
H 13.4247 0.114829 -0.867481
H 10.3597 2.99903 0.103742
H 11.8245 2.96815 1.12322
H 13.7172 1.8406 -1.20682
H 13.7511 1.25101 0.471689
H 11.2997 -0.716034 -0.177693
H 7.62087 -0.547852 2.51784
H 6.02708 -1.25496 2.18507
H 7.50987 -2.1571 1.80333
H 0.911753 -1.32848 1.58485
H 2.44068 -2.23611 1.57149
H 2.42888 -0.541018 2.0616
H -5.06366 -2.00724 1.51132
H -4.97528 -0.552494 -1.1891
H -2.84521 -0.158898 -1.78646
H -0.716879 -1.18333 -2.58388
H -0.411424 -0.364948 0.355207
H 1.65973 -0.184749 -1.94945
H 3.80031 -0.803565 -1.57148
H 6.22574 0.340075 -1.24187
H -13.42 2.00155 -1.5632
H -13.1725 2.32501 0.17323
H -13.5785 0.684455 -0.398167
H -11.7908 -0.661887 -1.69319
H -10.1754 0.0273053 -1.96356
H -11.5851 0.649961 -2.8542
H 9.61844 0.0250796 1.52514
H 4.55772 -0.102642 1.32618
O 10.9698 0.930496 -1.48978
C -2.99224 -3.15542 0.00246741
H -3.1263 -3.06892 1.09083
H -3.67227 -3.95303 -0.334097
H -1.96399 -3.47932 -0.183981
C -6.32968 1.76224 1.46013
H -6.45616 2.49643 0.650863
H -6.66706 2.25463 2.38517
H -5.2607 1.54892 1.55373
H -7.37569 -1.49948 0.777026
H -9.18353 -0.203153 1.12529
H -10.9657 2.54921 0.755671
H -8.61316 2.60634 0.0310265
H 8.39802 -0.266154 -1.28013
H 4.23925 1.06571 0.0456113
H -0.462335 0.746438 -1.00925
H 8.86937 -1.61036 -0.224213
H 4.08816 -1.97244 -0.272712
H 9.10416 1.36268 0.4815
H -0.674419 -2.30308 -1.22344
H -5.43796 -2.24417 -0.942335
H -4.54632 -0.336015 1.28366
H -8.96942 1.25525 2.1064
H -8.79051 1.15438 -0.952353
