43
 $coord  
C -3.45201 1.186 1.17449
C -2.12702 1.30971 1.43538
C -1.01776 0.73754 0.645463
C -1.09311 0.998842 -0.922346
C -1.50142 -0.180173 -1.71111
C -2.75463 -0.691561 -1.69367
C -3.9361 -0.257545 -0.978169
C -4.20175 0.49517 0.140015
C 0.366438 1.43445 0.692991
C 0.393762 1.49507 -0.885935
C 1.37526 0.764488 1.57443
C 2.70983 0.90728 1.60832
C 3.54869 1.68548 0.704637
C 3.59738 1.67101 -0.640772
C 2.88779 0.839707 -1.64322
C 1.3603 0.735563 -1.75896
N 2.17275 -0.393415 -1.4005
C 2.20792 -1.33323 -0.400187
O 3.21789 -1.77701 0.107349
O 0.934831 -1.77604 -0.155886
C 0.818378 -2.8232 0.843786
C -0.628722 -3.2876 0.850638
H -4.10661 1.71184 1.87171
H -1.84578 1.96284 2.26466
H -0.905728 -0.338105 0.801484
H -1.7843 1.82934 -1.10032
H -0.737993 -0.726732 -2.262
H -2.93024 -1.55757 -2.33467
H -4.84583 -0.664383 -1.42582
H -5.27472 0.586752 0.320829
H 0.241659 2.47 1.04656
H 0.464295 2.53553 -1.2287
H 0.927866 0.137633 2.34904
H 3.24099 0.423622 2.43007
H 4.28756 2.32093 1.19941
H 4.32814 2.33226 -1.10779
H 3.41613 0.830795 -2.60023
H 0.991048 0.686721 -2.78883
H 1.12126 -2.41112 1.81599
H 1.50804 -3.63776 0.592111
H -1.31107 -2.46696 1.10143
H -0.750222 -4.08143 1.59922
H -0.913176 -3.68473 -0.130895
