26

C                  0.00000000    0.00000000    0.78490900  
C                  0.00000000    0.00000000   -0.78490900  
C                 -0.86687300    1.14120200    1.34190800  
C                  1.42174600    0.18013400    1.34190800  
C                 -0.55487300   -1.32133500    1.34190800  
C                  0.86687300    1.14120200   -1.34190800  
C                 -1.42174600    0.18013400   -1.34190800  
C                  0.55487300   -1.32133500   -1.34190800  
H                 -0.59633900    2.11091100    0.91090600  
H                 -1.93145600    0.96682800    1.15785800  
H                 -0.72484300    1.20960400    2.42686600  
H                  1.80302500    1.18927600    1.15785800  
H                  1.40996900    0.02293000    2.42686600  
H                  2.12627200   -0.53901100    0.91090600  
H                 -1.52993300   -1.57190000    0.91090600  
H                  0.12843000   -2.15610300    1.15785800  
H                 -0.68512600   -1.23253400    2.42686600  
H                  0.59633900    2.11091100   -0.91090600  
H                  1.93145600    0.96682800   -1.15785800  
H                  0.72484300    1.20960400   -2.42686600  
H                 -1.80302500    1.18927600   -1.15785800  
H                 -1.40996900    0.02293000   -2.42686600  
H                 -2.12627200   -0.53901100   -0.91090600  
H                  1.52993300   -1.57190000   -0.91090600  
H                 -0.12843000   -2.15610300   -1.15785800  
H                  0.68512600   -1.23253400   -2.42686600
