6

C                  0.00000000    0.00000000   -0.00932300  
C                  0.00000000    0.00000000    1.32978100  
H                  0.92631100    0.00000000   -0.57490800  
H                 -0.92631100    0.00000000   -0.57490800  
H                  0.92631100    0.00000000    1.89536600  
H                 -0.92631100    0.00000000    1.89536600 
