26

C                 -0.16146400    4.47867500    0.00000000  
C                 -0.84061900    3.10866500    0.00000000  
C                  0.16146400    1.95379600    0.00000000  
C                 -0.50208600    0.57653500    0.00000000  
C                  0.50208600   -0.57653500    0.00000000  
C                 -0.16146400   -1.95379600    0.00000000  
C                  0.84061900   -3.10866500    0.00000000  
C                  0.16146400   -4.47867500    0.00000000  
H                 -0.89492500    5.29077300    0.00000000  
H                  0.47278100    4.59601600    0.88488300  
H                  0.47278100    4.59601600   -0.88488300  
H                 -1.49008500    3.01809600   -0.87994800  
H                 -1.49008500    3.01809600    0.87994800  
H                  0.81284600    2.04088900   -0.88074500  
H                  0.81284600    2.04088900    0.88074500  
H                 -1.15296200    0.48868100   -0.88091800 
H                 -1.15296200    0.48868100    0.88091800  
H                  1.15296200   -0.48868100   -0.88091800  
H                  1.15296200   -0.48868100    0.88091800  
H                 -0.81284600   -2.04088900   -0.88074500  
H                 -0.81284600   -2.04088900    0.88074500  
H                  1.49008500   -3.01809600   -0.87994800  
H                  1.49008500   -3.01809600    0.87994800  
H                 -0.47278100   -4.59601600   -0.88488300  
H                  0.89492500   -5.29077300    0.00000000  
H                 -0.47278100   -4.59601600    0.88488300 
